G39
  CCTOOLS-0919241038

 44 44  0  0  1  0  0  0  0  0999 V2000
    3.7250   -0.4550   -0.0170 C   0  0  0  0  0
    3.8530   -1.6570   -0.1400 O   0  0  0  0  0
    4.8100    0.3220    0.1750 O   0  0  0  0  0
    2.3890    0.1530   -0.0850 C   0  0  0  0  0
    2.2800    1.6410    0.0720 C   0  0  0  0  0
    0.9220    2.1270   -0.4410 C   0  0  0  0  0
   -0.1750    1.2600    0.1880 C   0  0  0  0  0
   -1.4900    1.8170   -0.1380 N   0  0  0  0  0
   -2.5440    1.5710    0.6660 C   0  0  0  0  0
   -2.4040    0.8890    1.6580 O   0  0  0  0  0
   -3.8970    2.1440    0.3300 C   0  0  0  0  0
   -0.0610   -0.1560   -0.3800 C   0  0  0  0  0
    1.3570   -0.6400   -0.2850 C   0  0  0  0  0
   -0.9140   -1.0330    0.3590 O   0  0  0  0  0
   -1.4240   -2.1280   -0.4050 C   0  0  0  0  0
   -1.6520   -3.3290    0.5150 C   0  0  0  0  0
   -2.7490   -1.7240   -1.0550 C   0  0  0  0  0
   -2.4990   -0.6050   -2.0680 C   0  0  0  0  0
   -0.3090   -3.8110    1.0680 C   0  0  0  0  0
    0.7230    3.5310   -0.0580 N   0  0  0  0  0
    5.6680   -0.1220    0.2090 H   0  0  0  0  0
    2.3820    1.9020    1.1250 H   0  0  0  0  0
    3.0750    2.1240   -0.4970 H   0  0  0  0  0
    0.8860    2.0320   -1.5270 H   0  0  0  0  0
   -0.0460    1.2350    1.2700 H   0  0  0  0  0
   -1.6020    2.3630   -0.9320 H   0  0  0  0  0
   -3.8280    2.7240   -0.5900 H   0  0  0  0  0
   -4.6120    1.3330    0.1950 H   0  0  0  0  0
   -4.2290    2.7900    1.1430 H   0  0  0  0  0
   -0.3690   -0.1520   -1.4250 H   0  0  0  0  0
    1.5400   -1.7000   -0.3830 H   0  0  0  0  0
   -0.7050   -2.3950   -1.1800 H   0  0  0  0  0
   -2.3010   -3.0360    1.3400 H   0  0  0  0  0
   -2.1230   -4.1340   -0.0490 H   0  0  0  0  0
   -3.1810   -2.5850   -1.5640 H   0  0  0  0  0
   -3.4380   -1.3720   -0.2870 H   0  0  0  0  0
   -2.0670    0.2570   -1.5590 H   0  0  0  0  0
   -1.8100   -0.9570   -2.8360 H   0  0  0  0  0
   -3.4430   -0.3170   -2.5310 H   0  0  0  0  0
    0.3390   -4.1040    0.2420 H   0  0  0  0  0
    0.1610   -3.0050    1.6320 H   0  0  0  0  0
   -0.4720   -4.6660    1.7230 H   0  0  0  0  0
    1.4440    4.1180   -0.4480 H   0  0  0  0  0
   -0.1930    3.8540   -0.3300 H   0  0  0  0  0
  1  2  2  0  0  0
  1  3  1  0  0  0
  1  4  1  0  0  0
  3 21  1  0  0  0
  4  5  1  0  0  0
  4 13  2  0  0  0
  5  6  1  0  0  0
  5 22  1  0  0  0
  5 23  1  0  0  0
  6  7  1  0  0  0
  6 20  1  0  0  0
  6 24  1  0  0  0
  7  8  1  0  0  0
  7 12  1  0  0  0
  7 25  1  0  0  0
  8  9  1  0  0  0
  8 26  1  0  0  0
  9 10  2  0  0  0
  9 11  1  0  0  0
 11 27  1  0  0  0
 11 28  1  0  0  0
 11 29  1  0  0  0
 12 13  1  0  0  0
 12 14  1  0  0  0
 12 30  1  0  0  0
 13 31  1  0  0  0
 14 15  1  0  0  0
 15 16  1  0  0  0
 15 17  1  0  0  0
 15 32  1  0  0  0
 16 19  1  0  0  0
 16 33  1  0  0  0
 16 34  1  0  0  0
 17 18  1  0  0  0
 17 35  1  0  0  0
 17 36  1  0  0  0
 18 37  1  0  0  0
 18 38  1  0  0  0
 18 39  1  0  0  0
 19 40  1  0  0  0
 19 41  1  0  0  0
 19 42  1  0  0  0
 20 43  1  0  0  0
 20 44  1  0  0  0
M  END
$$$$
