C14H24N2O4
APtclcactv12012417193D 0   0.00000     0.00000
 
 44 44  0  0  1  0  0  0  0  0999 V2000
   -0.0945    3.8536   -0.9967 C   0  0  0  0  0  0  0  0  0  0  0  0
   -1.4381    3.4295   -0.4005 C   0  0  0  0  0  0  0  0  0  0  0  0
   -1.2512    2.1525    0.4212 C   0  0  0  0  0  0  0  0  0  0  0  0
   -2.5660    1.7976    1.1185 C   0  0  0  0  0  0  0  0  0  0  0  0
   -2.3472    0.5940    2.0374 C   0  0  0  0  0  0  0  0  0  0  0  0
   -0.8664    1.0818   -0.4434 O   0  0  0  0  0  0  0  0  0  0  0  0
   -0.0561    0.1959    0.3317 C   0  0  2  0  0  0  0  0  0  0  0  0
   -0.3689    0.2396    1.3749 H   0  0  0  0  0  0  0  0  0  0  0  0
    1.3813    0.6150    0.2253 C   0  0  0  0  0  0  0  0  0  0  0  0
    2.3806   -0.2297    0.0651 C   0  0  0  0  0  0  0  0  0  0  0  0
    2.2068   -1.7169   -0.0402 C   0  0  0  0  0  0  0  0  0  0  0  0
    0.8270   -2.1241    0.4806 C   0  0  1  0  0  0  0  0  0  0  0  0
    0.7893   -1.9894    1.5616 H   0  0  0  0  0  0  0  0  0  0  0  0
   -0.2252   -1.2328   -0.1892 C   0  0  1  0  0  0  0  0  0  0  0  0
   -0.0852   -1.2500   -1.2701 H   0  0  0  0  0  0  0  0  0  0  0  0
   -1.5663   -1.7212    0.1411 N   0  0  0  0  0  0  0  0  0  0  0  0
   -2.6010   -1.4577   -0.6814 C   0  0  0  0  0  0  0  0  0  0  0  0
   -2.4218   -0.8161   -1.6949 O   0  0  0  0  0  0  0  0  0  0  0  0
   -3.9805   -1.9601   -0.3416 C   0  0  0  0  0  0  0  0  0  0  0  0
    0.5703   -3.5321    0.1495 N   0  3  0  0  0  0  0  0  0  0  0  0
    1.2751   -4.1125    0.5790 H   0  0  0  0  0  0  0  0  0  0  0  0
   -0.3400   -3.7980    0.4940 H   0  0  0  0  0  0  0  0  0  0  0  0
    0.5994   -3.6528   -0.8518 H   0  0  0  0  0  0  0  0  0  0  0  0
    3.7404    0.3150   -0.0154 C   0  0  0  0  0  0  0  0  0  0  0  0
    3.9216    1.5226    0.0660 O   0  0  0  0  0  0  0  0  0  0  0  0
    4.6934   -0.4381   -0.1639 O   0  5  0  0  0  0  0  0  0  0  0  0
   -0.2277    4.7634   -1.5821 H   0  0  0  0  0  0  0  0  0  0  0  0
    0.6173    4.0400   -0.1925 H   0  0  0  0  0  0  0  0  0  0  0  0
    0.2843    3.0596   -1.6403 H   0  0  0  0  0  0  0  0  0  0  0  0
   -1.8169    4.2235    0.2431 H   0  0  0  0  0  0  0  0  0  0  0  0
   -2.1499    3.2431   -1.2047 H   0  0  0  0  0  0  0  0  0  0  0  0
   -0.4747    2.3123    1.1694 H   0  0  0  0  0  0  0  0  0  0  0  0
   -2.9053    2.6486    1.7090 H   0  0  0  0  0  0  0  0  0  0  0  0
   -3.3192    1.5512    0.3701 H   0  0  0  0  0  0  0  0  0  0  0  0
   -3.2839    0.3412    2.5342 H   0  0  0  0  0  0  0  0  0  0  0  0
   -2.0079   -0.2570    1.4469 H   0  0  0  0  0  0  0  0  0  0  0  0
   -1.5941    0.8404    2.7858 H   0  0  0  0  0  0  0  0  0  0  0  0
    1.6099    1.6689    0.2829 H   0  0  0  0  0  0  0  0  0  0  0  0
    2.3030   -2.0190   -1.0831 H   0  0  0  0  0  0  0  0  0  0  0  0
    2.9769   -2.2134    0.5502 H   0  0  0  0  0  0  0  0  0  0  0  0
   -1.7096   -2.2343    0.9517 H   0  0  0  0  0  0  0  0  0  0  0  0
   -4.5023   -1.2130    0.2565 H   0  0  0  0  0  0  0  0  0  0  0  0
   -4.5372   -2.1431   -1.2607 H   0  0  0  0  0  0  0  0  0  0  0  0
   -3.9000   -2.8877    0.2252 H   0  0  0  0  0  0  0  0  0  0  0  0
  1  2  1  0  0  0  0
  2  3  1  0  0  0  0
  3  4  1  0  0  0  0
  4  5  1  0  0  0  0
  3  6  1  0  0  0  0
  6  7  1  0  0  0  0
  7  8  1  0  0  0  0
  7  9  1  0  0  0  0
  9 10  2  0  0  0  0
 10 11  1  0  0  0  0
 11 12  1  0  0  0  0
 12 13  1  0  0  0  0
 12 14  1  0  0  0  0
 14 15  1  0  0  0  0
  7 14  1  0  0  0  0
 14 16  1  0  0  0  0
 16 17  1  0  0  0  0
 17 18  2  0  0  0  0
 17 19  1  0  0  0  0
 12 20  1  0  0  0  0
 20 21  1  0  0  0  0
 20 22  1  0  0  0  0
 20 23  1  0  0  0  0
 10 24  1  0  0  0  0
 24 25  2  0  0  0  0
 24 26  1  0  0  0  0
  1 27  1  0  0  0  0
  1 28  1  0  0  0  0
  1 29  1  0  0  0  0
  2 30  1  0  0  0  0
  2 31  1  0  0  0  0
  3 32  1  0  0  0  0
  4 33  1  0  0  0  0
  4 34  1  0  0  0  0
  5 35  1  0  0  0  0
  5 36  1  0  0  0  0
  5 37  1  0  0  0  0
  9 38  1  0  0  0  0
 11 39  1  0  0  0  0
 11 40  1  0  0  0  0
 16 41  1  0  0  0  0
 19 42  1  0  0  0  0
 19 43  1  0  0  0  0
 19 44  1  0  0  0  0
M  CHG  2  20   1  26  -1
M  END
> <UNIQUE_SMILES>
CCC(CC)O[C@@H]1C=C(C[C@H]([NH3+])[C@H]1NC(C)=O)C([O-])=O

> <USER_SUPPLIED_SMILES>
CCC(CC)O[C@@H]1C=C(C[C@@H]([C@H]1NC(=O)C)[NH3+])C(=O)[O-]

$$$$
