C14H24N2O4
     RDKit          3D

 20 20  0  0  1  0  0  0  0  0999 V2000
   29.0343   20.8882   61.6974 C   0  0  0  0  0  0  0  0  0  0  0  0
   28.3957   19.7498   60.9727 C   0  0  0  0  0  0  0  0  0  0  0  0
   28.4842   18.4087   61.6222 C   0  0  1  0  0  0  0  0  0  0  0  0
   29.8282   17.7760   61.6694 C   0  0  0  0  0  0  0  0  0  0  0  0
   29.9885   16.6964   62.6607 C   0  0  0  0  0  0  0  0  0  0  0  0
   27.9099   18.4657   62.9173 O   0  0  0  0  0  0  0  0  0  0  0  0
   26.5616   18.2676   62.8090 C   0  0  2  0  0  0  0  0  0  0  0  0
   25.7834   19.2349   63.6259 C   0  0  0  0  0  0  0  0  0  0  0  0
   24.5306   18.9864   63.9031 C   0  0  0  0  0  0  0  0  0  0  0  0
   23.8083   17.7720   63.4469 C   0  0  0  0  0  0  0  0  0  0  0  0
   24.6574   16.7889   62.7117 C   0  0  1  0  0  0  0  0  0  0  0  0
   26.0748   16.8997   63.2421 C   0  0  1  0  0  0  0  0  0  0  0  0
   26.8992   15.8134   62.8305 N   0  0  0  0  0  0  0  0  0  0  0  0
   26.3275   14.6596   62.2098 C   0  0  0  0  0  0  0  0  0  0  0  0
   25.7084   13.8474   62.9529 O   0  0  0  0  0  0  0  0  0  0  0  0
   26.4487   14.4109   60.7443 C   0  0  0  0  0  0  0  0  0  0  0  0
   24.1609   15.4325   62.7968 N   0  0  0  0  0  4  0  0  0  0  0  0
   23.7750   19.9378   64.7035 C   0  0  0  0  0  0  0  0  0  0  0  0
   24.2670   21.0545   64.9811 O   0  0  0  0  0  0  0  0  0  0  0  0
   22.5159   19.6292   65.1657 O   0  0  0  0  0  1  0  0  0  0  0  0
  1  2  1  0
  3  2  1  1
  3  4  1  0
  4  5  1  0
  3  6  1  0
  7  6  1  1
  7  8  1  0
  8  9  2  0
  9 10  1  0
 10 11  1  0
 11 12  1  0
  7 12  1  0
 12 13  1  6
 13 14  1  0
 14 15  2  0
 14 16  1  0
 11 17  1  1
  9 18  1  0
 18 19  2  0
 18 20  1  0
M  CHG  2  17   1  20  -1
M  END
>  <UNIQUE_SMILES>  (1) 
CCC(CC)O[C@@H]1C=C(C[C@H]([NH3+])[C@H]1NC(C)=O)C([O-])=O

>  <USER_SUPPLIED_SMILES>  (1) 
CCC(CC)O[C@@H]1C=C(C[C@@H]([C@H]1NC(=O)C)[NH3+])C(=O)[O-]

$$$$
