C14H24N2O4
     RDKit          3D

 20 20  0  0  1  0  0  0  0  0999 V2000
   28.6148   20.5397   62.0539 C   0  0  0  0  0  0  0  0  0  0  0  0
   27.7003   19.5396   61.4275 C   0  0  0  0  0  0  0  0  0  0  0  0
   28.0773   18.1029   61.5754 C   0  0  1  0  0  0  0  0  0  0  0  0
   29.5286   17.7850   61.5368 C   0  0  0  0  0  0  0  0  0  0  0  0
   29.9227   16.5296   62.2021 C   0  0  0  0  0  0  0  0  0  0  0  0
   27.4769   17.5687   62.7436 O   0  0  0  0  0  0  0  0  0  0  0  0
   26.1246   17.7539   62.6663 C   0  0  2  0  0  0  0  0  0  0  0  0
   25.6424   18.7846   63.6222 C   0  0  0  0  0  0  0  0  0  0  0  0
   24.3708   18.8482   63.9176 C   0  0  0  0  0  0  0  0  0  0  0  0
   23.3440   17.9381   63.3501 C   0  0  0  0  0  0  0  0  0  0  0  0
   23.8907   16.8631   62.4707 C   0  0  1  0  0  0  0  0  0  0  0  0
   25.2886   16.5235   62.9536 C   0  0  1  0  0  0  0  0  0  0  0  0
   25.7856   15.3161   62.3840 N   0  0  0  0  0  0  0  0  0  0  0  0
   27.1869   15.0339   62.3836 C   0  0  0  0  0  0  0  0  0  0  0  0
   27.8155   15.2136   63.4642 O   0  0  0  0  0  0  0  0  0  0  0  0
   27.8927   14.5460   61.1638 C   0  0  0  0  0  0  0  0  0  0  0  0
   23.0463   15.6895   62.4144 N   0  0  0  0  0  4  0  0  0  0  0  0
   23.9059   19.8597   64.8542 C   0  0  0  0  0  0  0  0  0  0  0  0
   22.7675   19.7657   65.3653 O   0  0  0  0  0  0  0  0  0  0  0  0
   24.7034   20.9293   65.1921 O   0  0  0  0  0  1  0  0  0  0  0  0
  1  2  1  0
  3  2  1  1
  3  4  1  0
  4  5  1  0
  3  6  1  0
  7  6  1  1
  7  8  1  0
  8  9  2  0
  9 10  1  0
 10 11  1  0
 11 12  1  0
  7 12  1  0
 12 13  1  6
 13 14  1  0
 14 15  2  0
 14 16  1  0
 11 17  1  1
  9 18  1  0
 18 19  2  0
 18 20  1  0
M  CHG  2  17   1  20  -1
M  END
>  <UNIQUE_SMILES>  (1) 
CCC(CC)O[C@@H]1C=C(C[C@H]([NH3+])[C@H]1NC(C)=O)C([O-])=O

>  <USER_SUPPLIED_SMILES>  (1) 
CCC(CC)O[C@@H]1C=C(C[C@@H]([C@H]1NC(=O)C)[NH3+])C(=O)[O-]

$$$$
