C14H24N2O4
     RDKit          3D

 20 20  0  0  1  0  0  0  0  0999 V2000
   28.6118   20.6570   62.2108 C   0  0  0  0  0  0  0  0  0  0  0  0
   27.7489   19.6440   61.5338 C   0  0  0  0  0  0  0  0  0  0  0  0
   28.1696   18.2171   61.6562 C   0  0  1  0  0  0  0  0  0  0  0  0
   29.6313   17.9484   61.6541 C   0  0  0  0  0  0  0  0  0  0  0  0
   30.0513   16.7097   62.3347 C   0  0  0  0  0  0  0  0  0  0  0  0
   27.5529   17.6323   62.7911 O   0  0  0  0  0  0  0  0  0  0  0  0
   26.2005   17.8074   62.6951 C   0  0  2  0  0  0  0  0  0  0  0  0
   25.6905   18.7986   63.6780 C   0  0  0  0  0  0  0  0  0  0  0  0
   24.4131   18.8395   63.9516 C   0  0  0  0  0  0  0  0  0  0  0  0
   23.4061   17.9409   63.3328 C   0  0  0  0  0  0  0  0  0  0  0  0
   23.9796   16.9034   62.4258 C   0  0  1  0  0  0  0  0  0  0  0  0
   25.3716   16.5597   62.9225 C   0  0  1  0  0  0  0  0  0  0  0  0
   25.8911   15.3783   62.3195 N   0  0  0  0  0  0  0  0  0  0  0  0
   27.2835   15.0674   62.4075 C   0  0  0  0  0  0  0  0  0  0  0  0
   27.8368   15.1961   63.5356 O   0  0  0  0  0  0  0  0  0  0  0  0
   28.0656   14.6083   61.2235 C   0  0  0  0  0  0  0  0  0  0  0  0
   23.1481   15.7248   62.3118 N   0  0  0  0  0  4  0  0  0  0  0  0
   23.9209   19.8124   64.9151 C   0  0  0  0  0  0  0  0  0  0  0  0
   22.7736   19.6903   65.3997 O   0  0  0  0  0  0  0  0  0  0  0  0
   24.7021   20.8754   65.3073 O   0  0  0  0  0  1  0  0  0  0  0  0
  1  2  1  0
  3  2  1  1
  3  4  1  0
  4  5  1  0
  3  6  1  0
  7  6  1  1
  7  8  1  0
  8  9  2  0
  9 10  1  0
 10 11  1  0
 11 12  1  0
  7 12  1  0
 12 13  1  6
 13 14  1  0
 14 15  2  0
 14 16  1  0
 11 17  1  1
  9 18  1  0
 18 19  2  0
 18 20  1  0
M  CHG  2  17   1  20  -1
M  END
>  <UNIQUE_SMILES>  (1) 
CCC(CC)O[C@@H]1C=C(C[C@H]([NH3+])[C@H]1NC(C)=O)C([O-])=O

>  <USER_SUPPLIED_SMILES>  (1) 
CCC(CC)O[C@@H]1C=C(C[C@@H]([C@H]1NC(=O)C)[NH3+])C(=O)[O-]

$$$$
