C14H24N2O4
     RDKit          3D

 20 20  0  0  1  0  0  0  0  0999 V2000
   28.8041   20.5603   61.7786 C   0  0  0  0  0  0  0  0  0  0  0  0
   27.8053   19.4891   61.4888 C   0  0  0  0  0  0  0  0  0  0  0  0
   28.2576   18.0805   61.6871 C   0  0  1  0  0  0  0  0  0  0  0  0
   29.7245   17.8535   61.7622 C   0  0  0  0  0  0  0  0  0  0  0  0
   30.1409   16.5925   62.4027 C   0  0  0  0  0  0  0  0  0  0  0  0
   27.6044   17.5228   62.8153 O   0  0  0  0  0  0  0  0  0  0  0  0
   26.2589   17.7301   62.6906 C   0  0  2  0  0  0  0  0  0  0  0  0
   25.7776   18.8370   63.5576 C   0  0  0  0  0  0  0  0  0  0  0  0
   24.5011   18.9482   63.8154 C   0  0  0  0  0  0  0  0  0  0  0  0
   23.4677   18.0211   63.2889 C   0  0  0  0  0  0  0  0  0  0  0  0
   24.0107   16.8742   62.5029 C   0  0  1  0  0  0  0  0  0  0  0  0
   25.3886   16.5413   63.0443 C   0  0  1  0  0  0  0  0  0  0  0  0
   25.8717   15.2858   62.5755 N   0  0  0  0  0  0  0  0  0  0  0  0
   27.2568   15.1057   62.2718 C   0  0  0  0  0  0  0  0  0  0  0  0
   28.0860   15.3044   63.2036 O   0  0  0  0  0  0  0  0  0  0  0  0
   27.7200   14.6997   60.9136 C   0  0  0  0  0  0  0  0  0  0  0  0
   23.1415   15.7175   62.5096 N   0  0  0  0  0  4  0  0  0  0  0  0
   24.0371   20.0343   64.6650 C   0  0  0  0  0  0  0  0  0  0  0  0
   24.7924   20.9995   64.9180 O   0  0  0  0  0  0  0  0  0  0  0  0
   22.7696   20.0197   65.2011 O   0  0  0  0  0  1  0  0  0  0  0  0
  1  2  1  0
  3  2  1  1
  3  4  1  0
  4  5  1  0
  3  6  1  0
  7  6  1  1
  7  8  1  0
  8  9  2  0
  9 10  1  0
 10 11  1  0
 11 12  1  0
  7 12  1  0
 12 13  1  6
 13 14  1  0
 14 15  2  0
 14 16  1  0
 11 17  1  1
  9 18  1  0
 18 19  2  0
 18 20  1  0
M  CHG  2  17   1  20  -1
M  END
>  <UNIQUE_SMILES>  (1) 
CCC(CC)O[C@@H]1C=C(C[C@H]([NH3+])[C@H]1NC(C)=O)C([O-])=O

>  <USER_SUPPLIED_SMILES>  (1) 
CCC(CC)O[C@@H]1C=C(C[C@@H]([C@H]1NC(=O)C)[NH3+])C(=O)[O-]

$$$$
