C14H24N2O4
     RDKit          3D

 20 20  0  0  1  0  0  0  0  0999 V2000
   28.9146   20.9678   61.9009 C   0  0  0  0  0  0  0  0  0  0  0  0
   28.3031   19.8737   61.0898 C   0  0  0  0  0  0  0  0  0  0  0  0
   28.4290   18.4884   61.6312 C   0  0  1  0  0  0  0  0  0  0  0  0
   29.7852   17.8810   61.6054 C   0  0  0  0  0  0  0  0  0  0  0  0
   29.9707   16.7019   62.4709 C   0  0  0  0  0  0  0  0  0  0  0  0
   27.8786   18.4333   62.9368 O   0  0  0  0  0  0  0  0  0  0  0  0
   26.5414   18.1667   62.8387 C   0  0  2  0  0  0  0  0  0  0  0  0
   25.7235   19.0728   63.6865 C   0  0  0  0  0  0  0  0  0  0  0  0
   24.4889   18.7523   63.9716 C   0  0  0  0  0  0  0  0  0  0  0  0
   23.8259   17.5122   63.4953 C   0  0  0  0  0  0  0  0  0  0  0  0
   24.7164   16.5922   62.7280 C   0  0  1  0  0  0  0  0  0  0  0  0
   26.1324   16.7656   63.2452 C   0  0  1  0  0  0  0  0  0  0  0  0
   27.0076   15.7339   62.7993 N   0  0  0  0  0  0  0  0  0  0  0  0
   26.4853   14.5304   62.2320 C   0  0  0  0  0  0  0  0  0  0  0  0
   25.9287   13.7125   63.0171 O   0  0  0  0  0  0  0  0  0  0  0  0
   26.5859   14.2377   60.7731 C   0  0  0  0  0  0  0  0  0  0  0  0
   24.2929   15.2099   62.7869 N   0  0  0  0  0  4  0  0  0  0  0  0
   23.6943   19.6441   64.8022 C   0  0  0  0  0  0  0  0  0  0  0  0
   22.5534   19.2973   65.1821 O   0  0  0  0  0  0  0  0  0  0  0  0
   24.1791   20.8749   65.1818 O   0  0  0  0  0  1  0  0  0  0  0  0
  1  2  1  0
  3  2  1  1
  3  4  1  0
  4  5  1  0
  3  6  1  0
  7  6  1  1
  7  8  1  0
  8  9  2  0
  9 10  1  0
 10 11  1  0
 11 12  1  0
  7 12  1  0
 12 13  1  6
 13 14  1  0
 14 15  2  0
 14 16  1  0
 11 17  1  1
  9 18  1  0
 18 19  2  0
 18 20  1  0
M  CHG  2  17   1  20  -1
M  END
>  <UNIQUE_SMILES>  (1) 
CCC(CC)O[C@@H]1C=C(C[C@H]([NH3+])[C@H]1NC(C)=O)C([O-])=O

>  <USER_SUPPLIED_SMILES>  (1) 
CCC(CC)O[C@@H]1C=C(C[C@@H]([C@H]1NC(=O)C)[NH3+])C(=O)[O-]

$$$$
