C14H24N2O4
     RDKit          3D

 20 20  0  0  1  0  0  0  0  0999 V2000
   28.6370   20.5320   62.1017 C   0  0  0  0  0  0  0  0  0  0  0  0
   27.7325   19.5480   61.4367 C   0  0  0  0  0  0  0  0  0  0  0  0
   28.0851   18.1055   61.5884 C   0  0  1  0  0  0  0  0  0  0  0  0
   29.5296   17.7607   61.5306 C   0  0  0  0  0  0  0  0  0  0  0  0
   29.9540   16.6507   62.4033 C   0  0  0  0  0  0  0  0  0  0  0  0
   27.4923   17.5897   62.7686 O   0  0  0  0  0  0  0  0  0  0  0  0
   26.1378   17.7570   62.6889 C   0  0  2  0  0  0  0  0  0  0  0  0
   25.6405   18.7820   63.6432 C   0  0  0  0  0  0  0  0  0  0  0  0
   24.3677   18.8290   63.9365 C   0  0  0  0  0  0  0  0  0  0  0  0
   23.3539   17.9051   63.3681 C   0  0  0  0  0  0  0  0  0  0  0  0
   23.9161   16.8368   62.4902 C   0  0  1  0  0  0  0  0  0  0  0  0
   25.3175   16.5159   62.9758 C   0  0  1  0  0  0  0  0  0  0  0  0
   25.8314   15.3148   62.4078 N   0  0  0  0  0  0  0  0  0  0  0  0
   27.2348   15.0443   62.4230 C   0  0  0  0  0  0  0  0  0  0  0  0
   27.8476   15.2169   63.5138 O   0  0  0  0  0  0  0  0  0  0  0  0
   27.9609   14.5762   61.2073 C   0  0  0  0  0  0  0  0  0  0  0  0
   23.0873   15.6522   62.4334 N   0  0  0  0  0  4  0  0  0  0  0  0
   23.8881   19.8351   64.8717 C   0  0  0  0  0  0  0  0  0  0  0  0
   22.7402   19.7401   65.3612 O   0  0  0  0  0  0  0  0  0  0  0  0
   24.6817   20.9003   65.2317 O   0  0  0  0  0  1  0  0  0  0  0  0
  1  2  1  0
  3  2  1  1
  3  4  1  0
  4  5  1  0
  3  6  1  0
  7  6  1  1
  7  8  1  0
  8  9  2  0
  9 10  1  0
 10 11  1  0
 11 12  1  0
  7 12  1  0
 12 13  1  6
 13 14  1  0
 14 15  2  0
 14 16  1  0
 11 17  1  1
  9 18  1  0
 18 19  2  0
 18 20  1  0
M  CHG  2  17   1  20  -1
M  END
>  <UNIQUE_SMILES>  (1) 
CCC(CC)O[C@@H]1C=C(C[C@H]([NH3+])[C@H]1NC(C)=O)C([O-])=O

>  <USER_SUPPLIED_SMILES>  (1) 
CCC(CC)O[C@@H]1C=C(C[C@@H]([C@H]1NC(=O)C)[NH3+])C(=O)[O-]

$$$$
