C14H24N2O4
     RDKit          3D

 20 20  0  0  1  0  0  0  0  0999 V2000
   28.8908   20.8492   61.7766 C   0  0  0  0  0  0  0  0  0  0  0  0
   28.2956   19.6825   61.0601 C   0  0  0  0  0  0  0  0  0  0  0  0
   28.4313   18.3508   61.7205 C   0  0  1  0  0  0  0  0  0  0  0  0
   29.8000   17.7759   61.7914 C   0  0  0  0  0  0  0  0  0  0  0  0
   29.9555   16.6115   62.6823 C   0  0  0  0  0  0  0  0  0  0  0  0
   27.8365   18.3921   63.0070 O   0  0  0  0  0  0  0  0  0  0  0  0
   26.4925   18.1790   62.8764 C   0  0  2  0  0  0  0  0  0  0  0  0
   25.6924   19.0892   63.7368 C   0  0  0  0  0  0  0  0  0  0  0  0
   24.4415   18.8068   63.9893 C   0  0  0  0  0  0  0  0  0  0  0  0
   23.7425   17.6072   63.4630 C   0  0  0  0  0  0  0  0  0  0  0  0
   24.6130   16.6781   62.6840 C   0  0  1  0  0  0  0  0  0  0  0  0
   26.0242   16.7826   63.2319 C   0  0  1  0  0  0  0  0  0  0  0  0
   26.8692   15.7327   62.7705 N   0  0  0  0  0  0  0  0  0  0  0  0
   26.3145   14.5719   62.1476 C   0  0  0  0  0  0  0  0  0  0  0  0
   25.6990   13.7542   62.8876 O   0  0  0  0  0  0  0  0  0  0  0  0
   26.4489   14.3222   60.6834 C   0  0  0  0  0  0  0  0  0  0  0  0
   24.1377   15.3115   62.6925 N   0  0  0  0  0  4  0  0  0  0  0  0
   23.6644   19.7023   64.8325 C   0  0  0  0  0  0  0  0  0  0  0  0
   24.1443   20.8015   65.1898 O   0  0  0  0  0  0  0  0  0  0  0  0
   22.3983   19.3593   65.2486 O   0  0  0  0  0  1  0  0  0  0  0  0
  1  2  1  0
  3  2  1  1
  3  4  1  0
  4  5  1  0
  3  6  1  0
  7  6  1  1
  7  8  1  0
  8  9  2  0
  9 10  1  0
 10 11  1  0
 11 12  1  0
  7 12  1  0
 12 13  1  6
 13 14  1  0
 14 15  2  0
 14 16  1  0
 11 17  1  1
  9 18  1  0
 18 19  2  0
 18 20  1  0
M  CHG  2  17   1  20  -1
M  END
>  <UNIQUE_SMILES>  (1) 
CCC(CC)O[C@@H]1C=C(C[C@H]([NH3+])[C@H]1NC(C)=O)C([O-])=O

>  <USER_SUPPLIED_SMILES>  (1) 
CCC(CC)O[C@@H]1C=C(C[C@@H]([C@H]1NC(=O)C)[NH3+])C(=O)[O-]

$$$$
