C14H24N2O4
     RDKit          3D

 20 20  0  0  1  0  0  0  0  0999 V2000
   28.7350   20.7081   62.2103 C   0  0  0  0  0  0  0  0  0  0  0  0
   27.8691   19.7216   61.4989 C   0  0  0  0  0  0  0  0  0  0  0  0
   28.2523   18.2841   61.6208 C   0  0  1  0  0  0  0  0  0  0  0  0
   29.7062   17.9762   61.6078 C   0  0  0  0  0  0  0  0  0  0  0  0
   30.1034   16.7513   62.3259 C   0  0  0  0  0  0  0  0  0  0  0  0
   27.6290   17.7180   62.7616 O   0  0  0  0  0  0  0  0  0  0  0  0
   26.2781   17.9012   62.6603 C   0  0  2  0  0  0  0  0  0  0  0  0
   25.7751   18.9202   63.6180 C   0  0  0  0  0  0  0  0  0  0  0  0
   24.4979   18.9778   63.8895 C   0  0  0  0  0  0  0  0  0  0  0  0
   23.4844   18.0720   63.2922 C   0  0  0  0  0  0  0  0  0  0  0  0
   24.0504   17.0080   62.4116 C   0  0  1  0  0  0  0  0  0  0  0  0
   25.4394   16.6659   62.9177 C   0  0  1  0  0  0  0  0  0  0  0  0
   25.9502   15.4660   62.3445 N   0  0  0  0  0  0  0  0  0  0  0  0
   27.3364   15.1367   62.4590 C   0  0  0  0  0  0  0  0  0  0  0  0
   27.8775   15.2882   63.5902 O   0  0  0  0  0  0  0  0  0  0  0  0
   28.1259   14.6330   61.2984 C   0  0  0  0  0  0  0  0  0  0  0  0
   23.2099   15.8334   62.3260 N   0  0  0  0  0  4  0  0  0  0  0  0
   24.0127   19.9779   64.8282 C   0  0  0  0  0  0  0  0  0  0  0  0
   22.8721   19.8656   65.3308 O   0  0  0  0  0  0  0  0  0  0  0  0
   24.7931   21.0564   65.1772 O   0  0  0  0  0  1  0  0  0  0  0  0
  1  2  1  0
  3  2  1  1
  3  4  1  0
  4  5  1  0
  3  6  1  0
  7  6  1  1
  7  8  1  0
  8  9  2  0
  9 10  1  0
 10 11  1  0
 11 12  1  0
  7 12  1  0
 12 13  1  6
 13 14  1  0
 14 15  2  0
 14 16  1  0
 11 17  1  1
  9 18  1  0
 18 19  2  0
 18 20  1  0
M  CHG  2  17   1  20  -1
M  END
>  <UNIQUE_SMILES>  (1) 
CCC(CC)O[C@@H]1C=C(C[C@H]([NH3+])[C@H]1NC(C)=O)C([O-])=O

>  <USER_SUPPLIED_SMILES>  (1) 
CCC(CC)O[C@@H]1C=C(C[C@@H]([C@H]1NC(=O)C)[NH3+])C(=O)[O-]

$$$$
