C14H24N2O4
     RDKit          3D

 20 20  0  0  1  0  0  0  0  0999 V2000
   28.6637   20.6997   62.1231 C   0  0  0  0  0  0  0  0  0  0  0  0
   27.8074   19.7222   61.3882 C   0  0  0  0  0  0  0  0  0  0  0  0
   28.1589   18.2792   61.5379 C   0  0  1  0  0  0  0  0  0  0  0  0
   29.6054   17.9382   61.5224 C   0  0  0  0  0  0  0  0  0  0  0  0
   29.9839   16.7366   62.2883 C   0  0  0  0  0  0  0  0  0  0  0  0
   27.5307   17.7514   62.6943 O   0  0  0  0  0  0  0  0  0  0  0  0
   26.1775   17.8945   62.5629 C   0  0  2  0  0  0  0  0  0  0  0  0
   25.6061   18.8064   63.5878 C   0  0  0  0  0  0  0  0  0  0  0  0
   24.3198   18.7942   63.8192 C   0  0  0  0  0  0  0  0  0  0  0  0
   23.3610   17.9089   63.1110 C   0  0  0  0  0  0  0  0  0  0  0  0
   23.9948   16.9477   62.1612 C   0  0  1  0  0  0  0  0  0  0  0  0
   25.3796   16.6121   62.6830 C   0  0  1  0  0  0  0  0  0  0  0  0
   25.9538   15.4864   62.0254 N   0  0  0  0  0  0  0  0  0  0  0  0
   27.1937   14.9350   62.4745 C   0  0  0  0  0  0  0  0  0  0  0  0
   27.4992   15.1055   63.6881 O   0  0  0  0  0  0  0  0  0  0  0  0
   28.1013   14.1855   61.5586 C   0  0  0  0  0  0  0  0  0  0  0  0
   23.2033   15.7559   61.9449 N   0  0  0  0  0  4  0  0  0  0  0  0
   23.7674   19.6897   64.8241 C   0  0  0  0  0  0  0  0  0  0  0  0
   24.4494   20.6466   65.2547 O   0  0  0  0  0  0  0  0  0  0  0  0
   22.4955   19.5018   65.3150 O   0  0  0  0  0  1  0  0  0  0  0  0
  1  2  1  0
  3  2  1  1
  3  4  1  0
  4  5  1  0
  3  6  1  0
  7  6  1  1
  7  8  1  0
  8  9  2  0
  9 10  1  0
 10 11  1  0
 11 12  1  0
  7 12  1  0
 12 13  1  6
 13 14  1  0
 14 15  2  0
 14 16  1  0
 11 17  1  1
  9 18  1  0
 18 19  2  0
 18 20  1  0
M  CHG  2  17   1  20  -1
M  END
>  <UNIQUE_SMILES>  (1) 
CCC(CC)O[C@@H]1C=C(C[C@H]([NH3+])[C@H]1NC(C)=O)C([O-])=O

>  <USER_SUPPLIED_SMILES>  (1) 
CCC(CC)O[C@@H]1C=C(C[C@@H]([C@H]1NC(=O)C)[NH3+])C(=O)[O-]

$$$$
