C14H24N2O4
     RDKit          3D

 20 20  0  0  1  0  0  0  0  0999 V2000
   28.9752   20.9953   61.9372 C   0  0  0  0  0  0  0  0  0  0  0  0
   28.3900   19.8900   61.1217 C   0  0  0  0  0  0  0  0  0  0  0  0
   28.5249   18.5088   61.6712 C   0  0  1  0  0  0  0  0  0  0  0  0
   29.8889   17.9186   61.6691 C   0  0  0  0  0  0  0  0  0  0  0  0
   30.1367   16.8859   62.6919 C   0  0  0  0  0  0  0  0  0  0  0  0
   27.9550   18.4523   62.9683 O   0  0  0  0  0  0  0  0  0  0  0  0
   26.6122   18.2255   62.8486 C   0  0  2  0  0  0  0  0  0  0  0  0
   25.8102   19.1225   63.7208 C   0  0  0  0  0  0  0  0  0  0  0  0
   24.5647   18.8254   63.9829 C   0  0  0  0  0  0  0  0  0  0  0  0
   23.8739   17.6212   63.4564 C   0  0  0  0  0  0  0  0  0  0  0  0
   24.7472   16.7055   62.6648 C   0  0  1  0  0  0  0  0  0  0  0  0
   26.1621   16.8223   63.2008 C   0  0  1  0  0  0  0  0  0  0  0  0
   27.0140   15.7839   62.7262 N   0  0  0  0  0  0  0  0  0  0  0  0
   26.4657   14.6164   62.1103 C   0  0  0  0  0  0  0  0  0  0  0  0
   25.8471   13.8041   62.8536 O   0  0  0  0  0  0  0  0  0  0  0  0
   26.6101   14.3539   60.6493 C   0  0  0  0  0  0  0  0  0  0  0  0
   24.2866   15.3339   62.6703 N   0  0  0  0  0  4  0  0  0  0  0  0
   23.7857   19.7082   64.8377 C   0  0  0  0  0  0  0  0  0  0  0  0
   24.2866   20.7738   65.2617 O   0  0  0  0  0  0  0  0  0  0  0  0
   22.4946   19.3896   65.1923 O   0  0  0  0  0  1  0  0  0  0  0  0
  1  2  1  0
  3  2  1  1
  3  4  1  0
  4  5  1  0
  3  6  1  0
  7  6  1  1
  7  8  1  0
  8  9  2  0
  9 10  1  0
 10 11  1  0
 11 12  1  0
  7 12  1  0
 12 13  1  6
 13 14  1  0
 14 15  2  0
 14 16  1  0
 11 17  1  1
  9 18  1  0
 18 19  2  0
 18 20  1  0
M  CHG  2  17   1  20  -1
M  END
>  <UNIQUE_SMILES>  (1) 
CCC(CC)O[C@@H]1C=C(C[C@H]([NH3+])[C@H]1NC(C)=O)C([O-])=O

>  <USER_SUPPLIED_SMILES>  (1) 
CCC(CC)O[C@@H]1C=C(C[C@@H]([C@H]1NC(=O)C)[NH3+])C(=O)[O-]

$$$$
